134129847
  -OEChem-08302602192D

217224  0     1  0  0  0  0  0999 V2000
   21.5277   -3.0131    0.0000 O   0  0  0  0  0  0  0  0  0  0  0  0
   19.7956   -3.0131    0.0000 O   0  0  0  0  0  0  0  0  0  0  0  0
   18.0636   -5.0131    0.0000 O   0  0  0  0  0  0  0  0  0  0  0  0
   22.0277   -0.4151    0.0000 O   0  0  0  0  0  0  0  0  0  0  0  0
   17.1975   -3.5131    0.0000 O   0  0  0  0  0  0  0  0  0  0  0  0
   23.5277    0.4510    0.0000 O   0  0  0  0  0  0  0  0  0  0  0  0
   14.5995   -3.0131    0.0000 O   0  0  0  0  0  0  0  0  0  0  0  0
   21.5277    2.1830    0.0000 O   0  0  0  0  0  0  0  0  0  0  0  0
   12.9719   -2.4207    0.0000 O   0  0  0  0  0  0  0  0  0  0  0  0
   10.6602   -3.7077    0.0000 O   0  0  0  0  0  0  0  0  0  0  0  0
   19.7956   -6.0131    0.0000 O   0  0  0  0  0  0  0  0  0  0  0  0
   23.5277   -3.0131    0.0000 O   0  0  0  0  0  0  0  0  0  0  0  0
   21.5277    3.9151    0.0000 O   0  0  0  0  0  0  0  0  0  0  0  0
   14.5995   -5.0131    0.0000 O   0  0  0  0  0  0  0  0  0  0  0  0
    9.7942   -2.2076    0.0000 O   0  0  0  0  0  0  0  0  0  0  0  0
   24.5277   -1.2811    0.0000 O   0  0  0  0  0  0  0  0  0  0  0  0
   16.3315   -6.0131    0.0000 O   0  0  0  0  0  0  0  0  0  0  0  0
    7.1962   -1.7076    0.0000 O   0  0  0  0  0  0  0  0  0  0  0  0
   24.5277    2.1830    0.0000 O   0  0  0  0  0  0  0  0  0  0  0  0
   11.9458   -5.2399    0.0000 O   0  0  0  0  0  0  0  0  0  0  0  0
   13.9155   -4.8926    0.0000 O   0  0  0  0  0  0  0  0  0  0  0  0
   23.5277    3.9151    0.0000 O   0  0  0  0  0  0  0  0  0  0  0  0
    7.1961   -3.7077    0.0000 O   0  0  0  0  0  0  0  0  0  0  0  0
   19.0277    3.0490    0.0000 O   0  0  0  0  0  0  0  0  0  0  0  0
    6.3301   -3.2077    0.0000 O   0  0  0  0  0  0  0  0  0  0  0  0
   18.0636   -2.0131    0.0000 O   0  0  0  0  0  0  0  0  0  0  0  0
    8.9281   -4.7076    0.0000 O   0  0  0  0  0  0  0  0  0  0  0  0
   20.0277   -2.1471    0.0000 O   0  0  0  0  0  0  0  0  0  0  0  0
   15.4655   -1.5131    0.0000 O   0  0  0  0  0  0  0  0  0  0  0  0
   20.5277    5.6471    0.0000 O   0  0  0  0  0  0  0  0  0  0  0  0
   20.5277    0.4510    0.0000 O   0  0  0  0  0  0  0  0  0  0  0  0
    3.7321   -1.7076    0.0000 O   0  0  0  0  0  0  0  0  0  0  0  0
    5.4641   -0.7077    0.0000 O   0  0  0  0  0  0  0  0  0  0  0  0
    3.7320   -3.7077    0.0000 O   0  0  0  0  0  0  0  0  0  0  0  0
   18.5277    5.6471    0.0000 O   0  0  0  0  0  0  0  0  0  0  0  0
   17.5277    3.9151    0.0000 O   0  0  0  0  0  0  0  0  0  0  0  0
    8.0622   -0.2077    0.0000 O   0  0  0  0  0  0  0  0  0  0  0  0
   12.2878   -0.8886    0.0000 O   0  0  0  0  0  0  0  0  0  0  0  0
   20.6617   -6.5131    0.0000 O   0  0  0  0  0  0  0  0  0  0  0  0
   10.6603   -1.4810    0.0000 O   0  0  0  0  0  0  0  0  0  0  0  0
   20.0277    1.3170    0.0000 O   0  0  0  0  0  0  0  0  0  0  0  0
   25.0277   -2.1471    0.0000 O   0  0  0  0  0  0  0  0  0  0  0  0
    4.5981   -5.2077    0.0000 O   0  0  0  0  0  0  0  0  0  0  0  0
   15.4655   -6.5131    0.0000 O   0  0  0  0  0  0  0  0  0  0  0  0
   24.5277    3.9151    0.0000 O   0  0  0  0  0  0  0  0  0  0  0  0
   10.3182   -4.6474    0.0000 O   0  0  0  0  0  0  0  0  0  0  0  0
    8.0621   -5.2076    0.0000 O   0  0  0  0  0  0  0  0  0  0  0  0
   22.0277    6.5131    0.0000 O   0  0  0  0  0  0  0  0  0  0  0  0
    2.8660   -3.2076    0.0000 O   0  0  0  0  0  0  0  0  0  0  0  0
   21.5277   -5.0131    0.0000 N   0  0  0  0  0  0  0  0  0  0  0  0
   18.9296   -4.5131    0.0000 C   0  0  1  0  0  0  0  0  0  0  0  0
   20.6617   -4.5131    0.0000 C   0  0  1  0  0  0  0  0  0  0  0  0
   19.7956   -5.0131    0.0000 C   0  0  2  0  0  0  0  0  0  0  0  0
   22.0277   -2.1471    0.0000 C   0  0  1  0  0  0  0  0  0  0  0  0
   20.6617   -3.5131    0.0000 C   0  0  2  0  0  0  0  0  0  0  0  0
   18.9296   -3.5131    0.0000 C   0  0  1  0  0  0  0  0  0  0  0  0
   23.0277   -2.1471    0.0000 C   0  0  1  0  0  0  0  0  0  0  0  0
   15.4655   -3.5131    0.0000 C   0  0  1  0  0  0  0  0  0  0  0  0
   21.5277   -1.2811    0.0000 C   0  0  1  0  0  0  0  0  0  0  0  0
   17.1975   -4.5131    0.0000 C   0  0  2  0  0  0  0  0  0  0  0  0
   15.4655   -4.5131    0.0000 C   0  0  1  0  0  0  0  0  0  0  0  0
   23.5277   -1.2811    0.0000 C   0  0  1  0  0  0  0  0  0  0  0  0
   16.3315   -5.0131    0.0000 C   0  0  2  0  0  0  0  0  0  0  0  0
   23.0277   -0.4151    0.0000 C   0  0  1  0  0  0  0  0  0  0  0  0
   16.3315   -3.0131    0.0000 C   0  0  1  0  0  0  0  0  0  0  0  0
   23.0277    1.3170    0.0000 C   0  0  1  0  0  0  0  0  0  0  0  0
   23.5277    2.1830    0.0000 C   0  0  1  0  0  0  0  0  0  0  0  0
   11.6450   -3.5341    0.0000 C   0  0  1  0  0  0  0  0  0  0  0  0
   13.6147   -3.1868    0.0000 C   0  0  2  0  0  0  0  0  0  0  0  0
   22.0277    1.3170    0.0000 C   0  0  1  0  0  0  0  0  0  0  0  0
   12.2878   -4.3001    0.0000 C   0  0  1  0  0  0  0  0  0  0  0  0
   13.2727   -4.1265    0.0000 C   0  0  2  0  0  0  0  0  0  0  0  0
   23.0277    3.0490    0.0000 C   0  0  1  0  0  0  0  0  0  0  0  0
   22.0277    3.0490    0.0000 C   0  0  1  0  0  0  0  0  0  0  0  0
    8.0622   -2.2076    0.0000 C   0  0  1  0  0  0  0  0  0  0  0  0
   18.0636   -3.0131    0.0000 C   0  0  0  0  0  0  0  0  0  0  0  0
   11.9871   -2.5943    0.0000 C   0  0  1  0  0  0  0  0  0  0  0  0
    9.7942   -3.2077    0.0000 C   0  0  2  0  0  0  0  0  0  0  0  0
    8.0622   -3.2077    0.0000 C   0  0  1  0  0  0  0  0  0  0  0  0
    8.9282   -3.7077    0.0000 C   0  0  2  0  0  0  0  0  0  0  0  0
   20.5277   -1.2811    0.0000 C   0  0  0  0  0  0  0  0  0  0  0  0
    8.9282   -1.7076    0.0000 C   0  0  1  0  0  0  0  0  0  0  0  0
   20.5277    3.9151    0.0000 C   0  0  1  0  0  0  0  0  0  0  0  0
   16.3315   -2.0131    0.0000 C   0  0  0  0  0  0  0  0  0  0  0  0
   20.0277    4.7811    0.0000 C   0  0  1  0  0  0  0  0  0  0  0  0
   21.5277    0.4510    0.0000 C   0  0  0  0  0  0  0  0  0  0  0  0
   20.0277    3.0490    0.0000 C   0  0  1  0  0  0  0  0  0  0  0  0
    6.3301   -2.2076    0.0000 C   0  0  2  0  0  0  0  0  0  0  0  0
    5.4641   -1.7076    0.0000 C   0  0  2  0  0  0  0  0  0  0  0  0
   19.0277    4.7811    0.0000 C   0  0  1  0  0  0  0  0  0  0  0  0
    4.5981   -2.2076    0.0000 C   0  0  2  0  0  0  0  0  0  0  0  0
    4.5981   -3.2077    0.0000 C   0  0  1  0  0  0  0  0  0  0  0  0
    8.9282   -0.7077    0.0000 C   0  0  0  0  0  0  0  0  0  0  0  0
    5.4641   -3.7077    0.0000 C   0  0  1  0  0  0  0  0  0  0  0  0
   21.5277   -6.0131    0.0000 C   0  0  0  0  0  0  0  0  0  0  0  0
   18.5277    3.9151    0.0000 C   0  0  1  0  0  0  0  0  0  0  0  0
   11.6451   -1.6546    0.0000 C   0  0  0  0  0  0  0  0  0  0  0  0
   20.5277    2.1830    0.0000 C   0  0  0  0  0  0  0  0  0  0  0  0
   24.5277   -3.0131    0.0000 C   0  0  0  0  0  0  0  0  0  0  0  0
   14.5995   -6.0131    0.0000 C   0  0  0  0  0  0  0  0  0  0  0  0
    5.4641   -4.7077    0.0000 C   0  0  0  0  0  0  0  0  0  0  0  0
   22.3937   -6.5131    0.0000 C   0  0  0  0  0  0  0  0  0  0  0  0
   25.0277    3.0490    0.0000 C   0  0  0  0  0  0  0  0  0  0  0  0
   10.9610   -5.4135    0.0000 C   0  0  0  0  0  0  0  0  0  0  0  0
    7.1961   -4.7077    0.0000 C   0  0  0  0  0  0  0  0  0  0  0  0
   25.0277   -3.8792    0.0000 C   0  0  0  0  0  0  0  0  0  0  0  0
   13.7334   -6.5131    0.0000 C   0  0  0  0  0  0  0  0  0  0  0  0
   21.5277    5.6471    0.0000 C   0  0  0  0  0  0  0  0  0  0  0  0
   26.0277    3.0490    0.0000 C   0  0  0  0  0  0  0  0  0  0  0  0
   10.6190   -6.3532    0.0000 C   0  0  0  0  0  0  0  0  0  0  0  0
    3.7320   -4.7077    0.0000 C   0  0  0  0  0  0  0  0  0  0  0  0
    2.8660   -2.2076    0.0000 C   0  0  0  0  0  0  0  0  0  0  0  0
    6.3301   -5.2077    0.0000 C   0  0  0  0  0  0  0  0  0  0  0  0
   17.0277    3.0490    0.0000 C   0  0  0  0  0  0  0  0  0  0  0  0
   22.0277    4.7811    0.0000 C   0  0  0  0  0  0  0  0  0  0  0  0
    2.0000   -1.7076    0.0000 C   0  0  0  0  0  0  0  0  0  0  0  0
   18.9296   -5.1331    0.0000 H   0  0  0  0  0  0  0  0  0  0  0  0
   21.1986   -4.2031    0.0000 H   0  0  0  0  0  0  0  0  0  0  0  0
   20.3326   -5.3231    0.0000 H   0  0  0  0  0  0  0  0  0  0  0  0
   21.4077   -2.1471    0.0000 H   0  0  0  0  0  0  0  0  0  0  0  0
   20.6617   -2.8931    0.0000 H   0  0  0  0  0  0  0  0  0  0  0  0
   18.9296   -2.8931    0.0000 H   0  0  0  0  0  0  0  0  0  0  0  0
   23.6477   -2.1471    0.0000 H   0  0  0  0  0  0  0  0  0  0  0  0
   15.4655   -2.8931    0.0000 H   0  0  0  0  0  0  0  0  0  0  0  0
   21.2177   -0.7442    0.0000 H   0  0  0  0  0  0  0  0  0  0  0  0
   17.1975   -5.1331    0.0000 H   0  0  0  0  0  0  0  0  0  0  0  0
   15.4655   -5.1331    0.0000 H   0  0  0  0  0  0  0  0  0  0  0  0
   23.8377   -0.7442    0.0000 H   0  0  0  0  0  0  0  0  0  0  0  0
   16.8685   -5.3231    0.0000 H   0  0  0  0  0  0  0  0  0  0  0  0
   22.7177    0.1219    0.0000 H   0  0  0  0  0  0  0  0  0  0  0  0
   16.8685   -2.7031    0.0000 H   0  0  0  0  0  0  0  0  0  0  0  0
   23.6477    1.3170    0.0000 H   0  0  0  0  0  0  0  0  0  0  0  0
   23.8377    2.7200    0.0000 H   0  0  0  0  0  0  0  0  0  0  0  0
   11.2465   -3.0591    0.0000 H   0  0  0  0  0  0  0  0  0  0  0  0
   13.8267   -2.6042    0.0000 H   0  0  0  0  0  0  0  0  0  0  0  0
   21.4077    1.3170    0.0000 H   0  0  0  0  0  0  0  0  0  0  0  0
   11.6773   -4.4078    0.0000 H   0  0  0  0  0  0  0  0  0  0  0  0
   13.0606   -4.7091    0.0000 H   0  0  0  0  0  0  0  0  0  0  0  0
   22.7177    3.5860    0.0000 H   0  0  0  0  0  0  0  0  0  0  0  0
   21.4077    3.0490    0.0000 H   0  0  0  0  0  0  0  0  0  0  0  0
    7.5252   -2.5176    0.0000 H   0  0  0  0  0  0  0  0  0  0  0  0
   17.4530   -2.9055    0.0000 H   0  0  0  0  0  0  0  0  0  0  0  0
   17.8515   -3.5958    0.0000 H   0  0  0  0  0  0  0  0  0  0  0  0
   12.2971   -2.0574    0.0000 H   0  0  0  0  0  0  0  0  0  0  0  0
    9.7942   -3.8277    0.0000 H   0  0  0  0  0  0  0  0  0  0  0  0
    8.5991   -3.5177    0.0000 H   0  0  0  0  0  0  0  0  0  0  0  0
   22.0646   -4.7031    0.0000 H   0  0  0  0  0  0  0  0  0  0  0  0
    8.3912   -4.0177    0.0000 H   0  0  0  0  0  0  0  0  0  0  0  0
   20.6353   -0.6705    0.0000 H   0  0  0  0  0  0  0  0  0  0  0  0
   19.9451   -1.0690    0.0000 H   0  0  0  0  0  0  0  0  0  0  0  0
    9.4651   -1.3976    0.0000 H   0  0  0  0  0  0  0  0  0  0  0  0
   20.8377    4.4520    0.0000 H   0  0  0  0  0  0  0  0  0  0  0  0
   16.9421   -2.1208    0.0000 H   0  0  0  0  0  0  0  0  0  0  0  0
   16.5436   -1.4305    0.0000 H   0  0  0  0  0  0  0  0  0  0  0  0
   19.2587   -6.3231    0.0000 H   0  0  0  0  0  0  0  0  0  0  0  0
   19.7177    5.3180    0.0000 H   0  0  0  0  0  0  0  0  0  0  0  0
   21.4200   -0.1596    0.0000 H   0  0  0  0  0  0  0  0  0  0  0  0
   22.1103    0.2389    0.0000 H   0  0  0  0  0  0  0  0  0  0  0  0
   19.7177    2.5121    0.0000 H   0  0  0  0  0  0  0  0  0  0  0  0
    6.3301   -1.5876    0.0000 H   0  0  0  0  0  0  0  0  0  0  0  0
   24.8377   -0.7442    0.0000 H   0  0  0  0  0  0  0  0  0  0  0  0
    4.9272   -1.3976    0.0000 H   0  0  0  0  0  0  0  0  0  0  0  0
   16.8685   -6.3231    0.0000 H   0  0  0  0  0  0  0  0  0  0  0  0
   19.3377    5.3180    0.0000 H   0  0  0  0  0  0  0  0  0  0  0  0
    4.0611   -2.5176    0.0000 H   0  0  0  0  0  0  0  0  0  0  0  0
    5.1350   -3.5177    0.0000 H   0  0  0  0  0  0  0  0  0  0  0  0
    9.5388   -0.8154    0.0000 H   0  0  0  0  0  0  0  0  0  0  0  0
    9.1403   -0.1251    0.0000 H   0  0  0  0  0  0  0  0  0  0  0  0
    6.0010   -4.0177    0.0000 H   0  0  0  0  0  0  0  0  0  0  0  0
   18.2177    4.4520    0.0000 H   0  0  0  0  0  0  0  0  0  0  0  0
   13.7035   -5.4752    0.0000 H   0  0  0  0  0  0  0  0  0  0  0  0
   23.2177    4.4520    0.0000 H   0  0  0  0  0  0  0  0  0  0  0  0
   17.5266   -1.7031    0.0000 H   0  0  0  0  0  0  0  0  0  0  0  0
   21.0026    1.7845    0.0000 H   0  0  0  0  0  0  0  0  0  0  0  0
   21.0026    2.5815    0.0000 H   0  0  0  0  0  0  0  0  0  0  0  0
    9.4651   -5.0177    0.0000 H   0  0  0  0  0  0  0  0  0  0  0  0
   19.4077   -2.1471    0.0000 H   0  0  0  0  0  0  0  0  0  0  0  0
   15.4655   -0.8931    0.0000 H   0  0  0  0  0  0  0  0  0  0  0  0
    5.6761   -5.2903    0.0000 H   0  0  0  0  0  0  0  0  0  0  0  0
    6.0747   -4.6000    0.0000 H   0  0  0  0  0  0  0  0  0  0  0  0
   22.0837   -7.0501    0.0000 H   0  0  0  0  0  0  0  0  0  0  0  0
   22.9306   -6.8231    0.0000 H   0  0  0  0  0  0  0  0  0  0  0  0
   22.7037   -5.9762    0.0000 H   0  0  0  0  0  0  0  0  0  0  0  0
   20.2177   -0.0860    0.0000 H   0  0  0  0  0  0  0  0  0  0  0  0
    4.9272   -0.3977    0.0000 H   0  0  0  0  0  0  0  0  0  0  0  0
   17.9077    5.6471    0.0000 H   0  0  0  0  0  0  0  0  0  0  0  0
    8.0622    0.4123    0.0000 H   0  0  0  0  0  0  0  0  0  0  0  0
   24.4907   -4.1892    0.0000 H   0  0  0  0  0  0  0  0  0  0  0  0
   25.3377   -4.4161    0.0000 H   0  0  0  0  0  0  0  0  0  0  0  0
   25.5646   -3.5692    0.0000 H   0  0  0  0  0  0  0  0  0  0  0  0
   13.4234   -5.9762    0.0000 H   0  0  0  0  0  0  0  0  0  0  0  0
   13.1965   -6.8231    0.0000 H   0  0  0  0  0  0  0  0  0  0  0  0
   14.0434   -7.0501    0.0000 H   0  0  0  0  0  0  0  0  0  0  0  0
   12.8984   -0.9963    0.0000 H   0  0  0  0  0  0  0  0  0  0  0  0
   26.0277    2.4290    0.0000 H   0  0  0  0  0  0  0  0  0  0  0  0
   26.6477    3.0490    0.0000 H   0  0  0  0  0  0  0  0  0  0  0  0
   26.0277    3.6690    0.0000 H   0  0  0  0  0  0  0  0  0  0  0  0
   19.4077    1.3170    0.0000 H   0  0  0  0  0  0  0  0  0  0  0  0
   10.0364   -6.1412    0.0000 H   0  0  0  0  0  0  0  0  0  0  0  0
   10.4070   -6.9358    0.0000 H   0  0  0  0  0  0  0  0  0  0  0  0
   11.2016   -6.5652    0.0000 H   0  0  0  0  0  0  0  0  0  0  0  0
    3.1120   -4.7077    0.0000 H   0  0  0  0  0  0  0  0  0  0  0  0
    3.7320   -5.3277    0.0000 H   0  0  0  0  0  0  0  0  0  0  0  0
    4.3520   -4.7077    0.0000 H   0  0  0  0  0  0  0  0  0  0  0  0
    6.0201   -4.6708    0.0000 H   0  0  0  0  0  0  0  0  0  0  0  0
    5.7932   -5.5177    0.0000 H   0  0  0  0  0  0  0  0  0  0  0  0
    6.6401   -5.7446    0.0000 H   0  0  0  0  0  0  0  0  0  0  0  0
   16.4907    3.3590    0.0000 H   0  0  0  0  0  0  0  0  0  0  0  0
   16.7177    2.5121    0.0000 H   0  0  0  0  0  0  0  0  0  0  0  0
   17.5646    2.7390    0.0000 H   0  0  0  0  0  0  0  0  0  0  0  0
    4.5981   -5.8277    0.0000 H   0  0  0  0  0  0  0  0  0  0  0  0
   21.4907    4.4711    0.0000 H   0  0  0  0  0  0  0  0  0  0  0  0
   22.3377    4.2442    0.0000 H   0  0  0  0  0  0  0  0  0  0  0  0
   22.5646    5.0911    0.0000 H   0  0  0  0  0  0  0  0  0  0  0  0
    2.3100   -1.1707    0.0000 H   0  0  0  0  0  0  0  0  0  0  0  0
    1.4631   -1.3976    0.0000 H   0  0  0  0  0  0  0  0  0  0  0  0
    1.6900   -2.2446    0.0000 H   0  0  0  0  0  0  0  0  0  0  0  0
 54  1  1  6  0  0  0
 55  1  1  1  0  0  0
  2 55  1  0  0  0  0
  2 56  1  0  0  0  0
 51  3  1  6  0  0  0
 60  3  1  1  0  0  0
  4 59  1  0  0  0  0
  4 64  1  0  0  0  0
  5 60  1  0  0  0  0
  5 65  1  0  0  0  0
 64  6  1  1  0  0  0
 66  6  1  6  0  0  0
 58  7  1  6  0  0  0
 69  7  1  1  0  0  0
  8 70  1  0  0  0  0
  8 74  1  0  0  0  0
  9 69  1  0  0  0  0
  9 77  1  0  0  0  0
 68 10  1  6  0  0  0
 78 10  1  1  0  0  0
 53 11  1  6  0  0  0
 11155  1  0  0  0  0
 57 12  1  1  0  0  0
 12 99  1  0  0  0  0
 74 13  1  1  0  0  0
 83 13  1  6  0  0  0
 61 14  1  1  0  0  0
 14100  1  0  0  0  0
 15 78  1  0  0  0  0
 15 82  1  0  0  0  0
 62 16  1  1  0  0  0
 16161  1  0  0  0  0
 63 17  1  1  0  0  0
 17163  1  0  0  0  0
 75 18  1  6  0  0  0
 88 18  1  6  0  0  0
 67 19  1  1  0  0  0
 19103  1  0  0  0  0
 71 20  1  1  0  0  0
 20104  1  0  0  0  0
 72 21  1  1  0  0  0
 21171  1  0  0  0  0
 73 22  1  1  0  0  0
 22172  1  0  0  0  0
 79 23  1  1  0  0  0
 23105  1  0  0  0  0
 24 87  1  0  0  0  0
 24 96  1  0  0  0  0
 25 88  1  0  0  0  0
 25 94  1  0  0  0  0
 26 76  1  0  0  0  0
 26173  1  0  0  0  0
 80 27  1  1  0  0  0
 27176  1  0  0  0  0
 28 81  1  0  0  0  0
 28177  1  0  0  0  0
 29 84  1  0  0  0  0
 29178  1  0  0  0  0
 85 30  1  1  0  0  0
 30108  1  0  0  0  0
 31 86  1  0  0  0  0
 31184  1  0  0  0  0
 91 32  1  6  0  0  0
 32112  1  0  0  0  0
 89 33  1  6  0  0  0
 33185  1  0  0  0  0
 92 34  1  1  0  0  0
 34111  1  0  0  0  0
 90 35  1  1  0  0  0
 35186  1  0  0  0  0
 96 36  1  1  0  0  0
 36114  1  0  0  0  0
 37 93  1  0  0  0  0
 37187  1  0  0  0  0
 38 97  1  0  0  0  0
 38194  1  0  0  0  0
 39 95  2  0  0  0  0
 40 97  2  0  0  0  0
 41 98  1  0  0  0  0
 41198  1  0  0  0  0
 42 99  2  0  0  0  0
 43101  1  0  0  0  0
 43211  1  0  0  0  0
 44100  2  0  0  0  0
 45103  2  0  0  0  0
 46104  2  0  0  0  0
 47105  2  0  0  0  0
 48108  2  0  0  0  0
 49112  2  0  0  0  0
 52 50  1  1  0  0  0
 50 95  1  0  0  0  0
 50147  1  0  0  0  0
 51 53  1  0  0  0  0
 51 56  1  0  0  0  0
 51117  1  0  0  0  0
 52 53  1  0  0  0  0
 52 55  1  0  0  0  0
 52118  1  0  0  0  0
 53119  1  0  0  0  0
 54 57  1  0  0  0  0
 54 59  1  0  0  0  0
 54120  1  0  0  0  0
 55121  1  0  0  0  0
 56 76  1  1  0  0  0
 56122  1  0  0  0  0
 57 62  1  0  0  0  0
 57123  1  0  0  0  0
 58 61  1  0  0  0  0
 58 65  1  0  0  0  0
 58124  1  0  0  0  0
 59 81  1  1  0  0  0
 59125  1  0  0  0  0
 60 63  1  0  0  0  0
 60126  1  0  0  0  0
 61 63  1  0  0  0  0
 61127  1  0  0  0  0
 62 64  1  0  0  0  0
 62128  1  0  0  0  0
 63129  1  0  0  0  0
 64130  1  0  0  0  0
 65 84  1  1  0  0  0
 65131  1  0  0  0  0
 66 67  1  0  0  0  0
 66 70  1  0  0  0  0
 66132  1  0  0  0  0
 67 73  1  0  0  0  0
 67133  1  0  0  0  0
 68 71  1  0  0  0  0
 68 77  1  0  0  0  0
 68134  1  0  0  0  0
 69 72  1  0  0  0  0
 69135  1  0  0  0  0
 70 86  1  1  0  0  0
 70136  1  0  0  0  0
 71 72  1  0  0  0  0
 71137  1  0  0  0  0
 72138  1  0  0  0  0
 73 74  1  0  0  0  0
 73139  1  0  0  0  0
 74140  1  0  0  0  0
 75 79  1  0  0  0  0
 75 82  1  0  0  0  0
 75141  1  0  0  0  0
 76142  1  0  0  0  0
 76143  1  0  0  0  0
 77 97  1  1  0  0  0
 77144  1  0  0  0  0
 78 80  1  0  0  0  0
 78145  1  0  0  0  0
 79 80  1  0  0  0  0
 79146  1  0  0  0  0
 80148  1  0  0  0  0
 81149  1  0  0  0  0
 81150  1  0  0  0  0
 82 93  1  1  0  0  0
 82151  1  0  0  0  0
 83 85  1  0  0  0  0
 83 87  1  0  0  0  0
 83152  1  0  0  0  0
 84153  1  0  0  0  0
 84154  1  0  0  0  0
 85 90  1  0  0  0  0
 85156  1  0  0  0  0
 86157  1  0  0  0  0
 86158  1  0  0  0  0
 87 98  1  1  0  0  0
 87159  1  0  0  0  0
 88 89  1  0  0  0  0
 88160  1  0  0  0  0
 89 91  1  0  0  0  0
 89162  1  0  0  0  0
 90 96  1  0  0  0  0
 90164  1  0  0  0  0
 91 92  1  0  0  0  0
 91165  1  0  0  0  0
 92 94  1  0  0  0  0
 92166  1  0  0  0  0
 93167  1  0  0  0  0
 93168  1  0  0  0  0
 94101  1  6  0  0  0
 94169  1  0  0  0  0
 95102  1  0  0  0  0
 96170  1  0  0  0  0
 98174  1  0  0  0  0
 98175  1  0  0  0  0
 99106  1  0  0  0  0
100107  1  0  0  0  0
101179  1  0  0  0  0
101180  1  0  0  0  0
102181  1  0  0  0  0
102182  1  0  0  0  0
102183  1  0  0  0  0
103109  1  0  0  0  0
104110  1  0  0  0  0
105113  1  0  0  0  0
106188  1  0  0  0  0
106189  1  0  0  0  0
106190  1  0  0  0  0
107191  1  0  0  0  0
107192  1  0  0  0  0
107193  1  0  0  0  0
108115  1  0  0  0  0
109195  1  0  0  0  0
109196  1  0  0  0  0
109197  1  0  0  0  0
110199  1  0  0  0  0
110200  1  0  0  0  0
110201  1  0  0  0  0
111202  1  0  0  0  0
111203  1  0  0  0  0
111204  1  0  0  0  0
112116  1  0  0  0  0
113205  1  0  0  0  0
113206  1  0  0  0  0
113207  1  0  0  0  0
114208  1  0  0  0  0
114209  1  0  0  0  0
114210  1  0  0  0  0
115212  1  0  0  0  0
115213  1  0  0  0  0
115214  1  0  0  0  0
116215  1  0  0  0  0
116216  1  0  0  0  0
116217  1  0  0  0  0
M  END
$$$$
