139035031
  -OEChem-08302602192D

 46 45  0     1  0  0  0  0  0999 V2000
    5.0158   -1.7834    0.0000 Cu  0  2  0  0  0  0  0  0  0  0  0  0
    7.5974   -1.7442    0.0000 O   0  0  0  0  0  0  0  0  0  0  0  0
    7.6139   -0.2834    0.0000 O   0  0  0  0  0  0  0  0  0  0  0  0
    8.4800    3.2166    0.0000 O   0  5  0  0  0  0  0  0  0  0  0  0
    6.7479    3.2166    0.0000 O   0  0  0  0  0  0  0  0  0  0  0  0
    5.8819   -1.2834    0.0000 N   0  5  0  0  0  0  0  0  0  0  0  0
    4.1498   -1.2834    0.0000 N   0  0  0  0  0  0  0  0  0  0  0  0
    5.2251   -2.7552    0.0000 N   0  5  0  0  0  0  0  0  0  0  0  0
    6.7479    1.2166    0.0000 N   0  0  0  0  0  0  0  0  0  0  0  0
    2.6200   -0.7834    0.0000 N   0  0  0  0  0  0  0  0  0  0  0  0
   11.9441    1.2166    0.0000 N   0  0  0  0  0  0  0  0  0  0  0  0
    5.8819   -0.2834    0.0000 C   0  0  1  0  0  0  0  0  0  0  0  0
    5.0158    0.2166    0.0000 C   0  0  0  0  0  0  0  0  0  0  0  0
    4.1498   -0.2834    0.0000 C   0  0  0  0  0  0  0  0  0  0  0  0
    6.6189   -1.9504    0.0000 C   0  0  0  0  0  0  0  0  0  0  0  0
    6.7479    0.2166    0.0000 C   0  0  0  0  0  0  0  0  0  0  0  0
    6.2138   -2.8582    0.0000 C   0  0  0  0  0  0  0  0  0  0  0  0
    3.2036    0.0214    0.0000 C   0  0  0  0  0  0  0  0  0  0  0  0
    3.2036   -1.5881    0.0000 C   0  0  0  0  0  0  0  0  0  0  0  0
    7.6139    1.7166    0.0000 C   0  0  1  0  0  0  0  0  0  0  0  0
    8.4800    1.2166    0.0000 C   0  0  0  0  0  0  0  0  0  0  0  0
    9.3460    1.7166    0.0000 C   0  0  0  0  0  0  0  0  0  0  0  0
   10.2120    1.2166    0.0000 C   0  0  0  0  0  0  0  0  0  0  0  0
    7.6139    2.7166    0.0000 C   0  0  0  0  0  0  0  0  0  0  0  0
   11.0780    1.7166    0.0000 C   0  0  0  0  0  0  0  0  0  0  0  0
    6.4188   -0.5934    0.0000 H   0  0  0  0  0  0  0  0  0  0  0  0
    5.4144    0.6916    0.0000 H   0  0  0  0  0  0  0  0  0  0  0  0
    4.6173    0.6916    0.0000 H   0  0  0  0  0  0  0  0  0  0  0  0
    6.0850   -3.4647    0.0000 H   0  0  0  0  0  0  0  0  0  0  0  0
    6.8034   -3.0500    0.0000 H   0  0  0  0  0  0  0  0  0  0  0  0
    4.8110   -3.2166    0.0000 H   0  0  0  0  0  0  0  0  0  0  0  0
    3.0110    0.6107    0.0000 H   0  0  0  0  0  0  0  0  0  0  0  0
    3.0110   -2.1774    0.0000 H   0  0  0  0  0  0  0  0  0  0  0  0
    7.0770    2.0266    0.0000 H   0  0  0  0  0  0  0  0  0  0  0  0
    6.2110    1.5266    0.0000 H   0  0  0  0  0  0  0  0  0  0  0  0
    8.0814    0.7417    0.0000 H   0  0  0  0  0  0  0  0  0  0  0  0
    8.8785    0.7417    0.0000 H   0  0  0  0  0  0  0  0  0  0  0  0
    2.0000   -0.7834    0.0000 H   0  0  0  0  0  0  0  0  0  0  0  0
    9.7445    2.1916    0.0000 H   0  0  0  0  0  0  0  0  0  0  0  0
    8.9474    2.1916    0.0000 H   0  0  0  0  0  0  0  0  0  0  0  0
    9.8135    0.7417    0.0000 H   0  0  0  0  0  0  0  0  0  0  0  0
   10.6105    0.7417    0.0000 H   0  0  0  0  0  0  0  0  0  0  0  0
   11.4766    2.1916    0.0000 H   0  0  0  0  0  0  0  0  0  0  0  0
   10.6795    2.1916    0.0000 H   0  0  0  0  0  0  0  0  0  0  0  0
   12.4810    1.5266    0.0000 H   0  0  0  0  0  0  0  0  0  0  0  0
   11.9441    0.5966    0.0000 H   0  0  0  0  0  0  0  0  0  0  0  0
  2 15  2  0  0  0  0
  3 16  2  0  0  0  0
  4 24  1  0  0  0  0
  5 24  2  0  0  0  0
  6 12  1  0  0  0  0
  6 15  1  0  0  0  0
  7 14  1  0  0  0  0
  7 19  2  0  0  0  0
  8 17  1  0  0  0  0
  8 31  1  0  0  0  0
  9 16  1  0  0  0  0
 20  9  1  6  0  0  0
  9 35  1  0  0  0  0
 10 18  1  0  0  0  0
 10 19  1  0  0  0  0
 10 38  1  0  0  0  0
 11 25  1  0  0  0  0
 11 45  1  0  0  0  0
 11 46  1  0  0  0  0
 12 13  1  0  0  0  0
 12 16  1  1  0  0  0
 12 26  1  0  0  0  0
 13 14  1  0  0  0  0
 13 27  1  0  0  0  0
 13 28  1  0  0  0  0
 14 18  2  0  0  0  0
 15 17  1  0  0  0  0
 17 29  1  0  0  0  0
 17 30  1  0  0  0  0
 18 32  1  0  0  0  0
 19 33  1  0  0  0  0
 20 21  1  0  0  0  0
 20 24  1  0  0  0  0
 20 34  1  0  0  0  0
 21 22  1  0  0  0  0
 21 36  1  0  0  0  0
 21 37  1  0  0  0  0
 22 23  1  0  0  0  0
 22 39  1  0  0  0  0
 22 40  1  0  0  0  0
 23 25  1  0  0  0  0
 23 41  1  0  0  0  0
 23 42  1  0  0  0  0
 25 43  1  0  0  0  0
 25 44  1  0  0  0  0
M  CHG  4   1   2   4  -1   6  -1   8  -1
M  END
$$$$
