757
  -OEChem-08302602193D

  9  8  0     0  0  0  0  0  0999 V2000
   -1.8877    0.0894    0.0097 O   0  0  0  0  0  0  0  0  0  0  0  0
    1.5950   -0.7195    0.0078 O   0  0  0  0  0  0  0  0  0  0  0  0
    0.5455    1.3018   -0.0031 O   0  0  0  0  0  0  0  0  0  0  0  0
   -0.7521   -0.7524   -0.0119 C   0  0  0  0  0  0  0  0  0  0  0  0
    0.4994    0.0808   -0.0026 C   0  0  0  0  0  0  0  0  0  0  0  0
   -0.7773   -1.4045    0.8654 H   0  0  0  0  0  0  0  0  0  0  0  0
   -0.7835   -1.3486   -0.9275 H   0  0  0  0  0  0  0  0  0  0  0  0
   -1.8945    0.5504    0.8660 H   0  0  0  0  0  0  0  0  0  0  0  0
    2.4274   -0.2005    0.0146 H   0  0  0  0  0  0  0  0  0  0  0  0
  1  4  1  0  0  0  0
  1  8  1  0  0  0  0
  2  5  1  0  0  0  0
  2  9  1  0  0  0  0
  3  5  2  0  0  0  0
  4  5  1  0  0  0  0
  4  6  1  0  0  0  0
  4  7  1  0  0  0  0
M  END
$$$$
