612
  -OEChem-08302602193D

 12 11  0     1  0  0  0  0  0999 V2000
   -1.3875    1.1182    0.1968 O   0  0  0  0  0  0  0  0  0  0  0  0
    1.4877   -1.0368    0.2617 O   0  0  0  0  0  0  0  0  0  0  0  0
    1.2263    1.1148   -0.4123 O   0  0  0  0  0  0  0  0  0  0  0  0
   -0.7078   -0.1118    0.4002 C   0  0  1  0  0  0  0  0  0  0  0  0
   -1.3669   -1.1626   -0.4759 C   0  0  0  0  0  0  0  0  0  0  0  0
    0.7481    0.0781    0.0295 C   0  0  0  0  0  0  0  0  0  0  0  0
   -0.7822   -0.3748    1.4601 H   0  0  0  0  0  0  0  0  0  0  0  0
   -1.2848   -0.8968   -1.5360 H   0  0  0  0  0  0  0  0  0  0  0  0
   -2.4357   -1.2376   -0.2485 H   0  0  0  0  0  0  0  0  0  0  0  0
   -0.9100   -2.1472   -0.3365 H   0  0  0  0  0  0  0  0  0  0  0  0
   -1.0263    1.7604    0.8318 H   0  0  0  0  0  0  0  0  0  0  0  0
    2.4313   -0.9049    0.0279 H   0  0  0  0  0  0  0  0  0  0  0  0
  1  4  1  0  0  0  0
  1 11  1  0  0  0  0
  2  6  1  0  0  0  0
  2 12  1  0  0  0  0
  3  6  2  0  0  0  0
  4  5  1  0  0  0  0
  4  6  1  0  0  0  0
  4  7  1  0  0  0  0
  5  8  1  0  0  0  0
  5  9  1  0  0  0  0
  5 10  1  0  0  0  0
M  END
$$$$
