9897237
  -OEChem-08302602192D

131130  0     1  0  0  0  0  0999 V2000
   18.4545    1.7500    0.0000 O   0  0  0  0  0  0  0  0  0  0  0  0
   17.5885    1.2500    0.0000 O   0  0  0  0  0  0  0  0  0  0  0  0
   21.0526   -1.7500    0.0000 O   0  0  0  0  0  0  0  0  0  0  0  0
   14.9904   -1.2500    0.0000 O   0  0  0  0  0  0  0  0  0  0  0  0
   20.1865   -1.2500    0.0000 O   0  0  0  0  0  0  0  0  0  0  0  0
   22.7846    1.2500    0.0000 O   0  0  0  0  0  0  0  0  0  0  0  0
   25.3827   -1.2500    0.0000 O   0  0  0  0  0  0  0  0  0  0  0  0
   27.9808   -1.7500    0.0000 O   0  0  0  0  0  0  0  0  0  0  0  0
   28.8468   -0.2500    0.0000 O   0  0  0  0  0  0  0  0  0  0  0  0
   27.9808    1.2500    0.0000 O   0  0  0  0  0  0  0  0  0  0  0  0
   15.8564    0.2500    0.0000 N   0  0  0  0  0  0  0  0  0  0  0  0
   18.4545   -0.2500    0.0000 N   0  0  0  0  0  0  0  0  0  0  0  0
   21.0526    0.2500    0.0000 N   0  0  0  0  0  0  0  0  0  0  0  0
   23.6506   -0.2500    0.0000 N   0  0  0  0  0  0  0  0  0  0  0  0
   26.2487    0.2500    0.0000 N   0  0  0  0  0  0  0  0  0  0  0  0
   14.9904   -4.2500    0.0000 N   0  0  0  0  0  0  0  0  0  0  0  0
   26.2487    4.2500    0.0000 N   0  0  0  0  0  0  0  0  0  0  0  0
    8.9282    0.2500    0.0000 C   0  0  0  0  0  0  0  0  0  0  0  0
    9.7942   -0.2500    0.0000 C   0  0  0  0  0  0  0  0  0  0  0  0
    8.0622   -0.2500    0.0000 C   0  0  0  0  0  0  0  0  0  0  0  0
   10.6603    0.2500    0.0000 C   0  0  0  0  0  0  0  0  0  0  0  0
    7.1962    0.2500    0.0000 C   0  0  0  0  0  0  0  0  0  0  0  0
   11.5263   -0.2500    0.0000 C   0  0  0  0  0  0  0  0  0  0  0  0
    6.3301   -0.2500    0.0000 C   0  0  0  0  0  0  0  0  0  0  0  0
   12.3923    0.2500    0.0000 C   0  0  0  0  0  0  0  0  0  0  0  0
    5.4641    0.2500    0.0000 C   0  0  0  0  0  0  0  0  0  0  0  0
   13.2583   -0.2500    0.0000 C   0  0  0  0  0  0  0  0  0  0  0  0
   16.7224   -0.2500    0.0000 C   0  0  1  0  0  0  0  0  0  0  0  0
   16.7224   -1.2500    0.0000 C   0  0  0  0  0  0  0  0  0  0  0  0
    4.5981   -0.2500    0.0000 C   0  0  0  0  0  0  0  0  0  0  0  0
   14.1244    0.2500    0.0000 C   0  0  0  0  0  0  0  0  0  0  0  0
   19.3205    0.2500    0.0000 C   0  0  1  0  0  0  0  0  0  0  0  0
   15.8564   -1.7500    0.0000 C   0  0  0  0  0  0  0  0  0  0  0  0
   21.9186   -0.2500    0.0000 C   0  0  1  0  0  0  0  0  0  0  0  0
    3.7321    0.2500    0.0000 C   0  0  0  0  0  0  0  0  0  0  0  0
   24.5167    0.2500    0.0000 C   0  0  1  0  0  0  0  0  0  0  0  0
   17.5885    0.2500    0.0000 C   0  0  0  0  0  0  0  0  0  0  0  0
   14.9904   -0.2500    0.0000 C   0  0  0  0  0  0  0  0  0  0  0  0
   24.5167    1.2500    0.0000 C   0  0  0  0  0  0  0  0  0  0  0  0
   19.3205    1.2500    0.0000 C   0  0  1  0  0  0  0  0  0  0  0  0
   20.1865   -0.2500    0.0000 C   0  0  0  0  0  0  0  0  0  0  0  0
   15.8564   -2.7500    0.0000 C   0  0  0  0  0  0  0  0  0  0  0  0
   21.9186   -1.2500    0.0000 C   0  0  1  0  0  0  0  0  0  0  0  0
   25.3827    1.7500    0.0000 C   0  0  0  0  0  0  0  0  0  0  0  0
   22.7846    0.2500    0.0000 C   0  0  0  0  0  0  0  0  0  0  0  0
    2.8660   -0.2500    0.0000 C   0  0  0  0  0  0  0  0  0  0  0  0
   25.3827    2.7500    0.0000 C   0  0  0  0  0  0  0  0  0  0  0  0
   25.3827   -0.2500    0.0000 C   0  0  0  0  0  0  0  0  0  0  0  0
   14.9904   -3.2500    0.0000 C   0  0  0  0  0  0  0  0  0  0  0  0
   20.1865    1.7500    0.0000 C   0  0  0  0  0  0  0  0  0  0  0  0
   22.7846   -1.7500    0.0000 C   0  0  0  0  0  0  0  0  0  0  0  0
    2.0000    0.2500    0.0000 C   0  0  0  0  0  0  0  0  0  0  0  0
   26.2487    3.2500    0.0000 C   0  0  0  0  0  0  0  0  0  0  0  0
   27.1147   -0.2500    0.0000 C   0  0  1  0  0  0  0  0  0  0  0  0
   27.1147   -1.2500    0.0000 C   0  0  0  0  0  0  0  0  0  0  0  0
   27.9808    0.2500    0.0000 C   0  0  0  0  0  0  0  0  0  0  0  0
    9.3267    0.7249    0.0000 H   0  0  0  0  0  0  0  0  0  0  0  0
    8.5297    0.7249    0.0000 H   0  0  0  0  0  0  0  0  0  0  0  0
    9.3957   -0.7249    0.0000 H   0  0  0  0  0  0  0  0  0  0  0  0
   10.1928   -0.7249    0.0000 H   0  0  0  0  0  0  0  0  0  0  0  0
    7.6637   -0.7249    0.0000 H   0  0  0  0  0  0  0  0  0  0  0  0
    8.4607   -0.7249    0.0000 H   0  0  0  0  0  0  0  0  0  0  0  0
   11.0588    0.7249    0.0000 H   0  0  0  0  0  0  0  0  0  0  0  0
   10.2617    0.7249    0.0000 H   0  0  0  0  0  0  0  0  0  0  0  0
    7.5947    0.7249    0.0000 H   0  0  0  0  0  0  0  0  0  0  0  0
    6.7976    0.7249    0.0000 H   0  0  0  0  0  0  0  0  0  0  0  0
   11.1278   -0.7249    0.0000 H   0  0  0  0  0  0  0  0  0  0  0  0
   11.9248   -0.7249    0.0000 H   0  0  0  0  0  0  0  0  0  0  0  0
    5.9316   -0.7249    0.0000 H   0  0  0  0  0  0  0  0  0  0  0  0
    6.7287   -0.7249    0.0000 H   0  0  0  0  0  0  0  0  0  0  0  0
   12.7908    0.7249    0.0000 H   0  0  0  0  0  0  0  0  0  0  0  0
   11.9938    0.7249    0.0000 H   0  0  0  0  0  0  0  0  0  0  0  0
    5.8626    0.7249    0.0000 H   0  0  0  0  0  0  0  0  0  0  0  0
    5.0656    0.7249    0.0000 H   0  0  0  0  0  0  0  0  0  0  0  0
   12.8598   -0.7249    0.0000 H   0  0  0  0  0  0  0  0  0  0  0  0
   13.6569   -0.7249    0.0000 H   0  0  0  0  0  0  0  0  0  0  0  0
   16.1855   -0.5600    0.0000 H   0  0  0  0  0  0  0  0  0  0  0  0
   16.9345   -1.8326    0.0000 H   0  0  0  0  0  0  0  0  0  0  0  0
   17.3330   -1.1423    0.0000 H   0  0  0  0  0  0  0  0  0  0  0  0
    4.1996   -0.7249    0.0000 H   0  0  0  0  0  0  0  0  0  0  0  0
    4.9966   -0.7249    0.0000 H   0  0  0  0  0  0  0  0  0  0  0  0
   14.5229    0.7249    0.0000 H   0  0  0  0  0  0  0  0  0  0  0  0
   13.7258    0.7249    0.0000 H   0  0  0  0  0  0  0  0  0  0  0  0
   19.8574   -0.0600    0.0000 H   0  0  0  0  0  0  0  0  0  0  0  0
   15.6444   -1.1674    0.0000 H   0  0  0  0  0  0  0  0  0  0  0  0
   15.2458   -1.8577    0.0000 H   0  0  0  0  0  0  0  0  0  0  0  0
   21.9186    0.3700    0.0000 H   0  0  0  0  0  0  0  0  0  0  0  0
   24.5167   -0.3700    0.0000 H   0  0  0  0  0  0  0  0  0  0  0  0
    4.1306    0.7249    0.0000 H   0  0  0  0  0  0  0  0  0  0  0  0
    3.3335    0.7249    0.0000 H   0  0  0  0  0  0  0  0  0  0  0  0
   15.8564    0.8700    0.0000 H   0  0  0  0  0  0  0  0  0  0  0  0
   24.3046    1.8326    0.0000 H   0  0  0  0  0  0  0  0  0  0  0  0
   23.9061    1.1423    0.0000 H   0  0  0  0  0  0  0  0  0  0  0  0
   18.4545   -0.8700    0.0000 H   0  0  0  0  0  0  0  0  0  0  0  0
   18.7836    0.9400    0.0000 H   0  0  0  0  0  0  0  0  0  0  0  0
   16.0685   -3.3326    0.0000 H   0  0  0  0  0  0  0  0  0  0  0  0
   16.4670   -2.6423    0.0000 H   0  0  0  0  0  0  0  0  0  0  0  0
   21.3816   -0.9400    0.0000 H   0  0  0  0  0  0  0  0  0  0  0  0
   25.5947    1.1674    0.0000 H   0  0  0  0  0  0  0  0  0  0  0  0
   25.9933    1.8577    0.0000 H   0  0  0  0  0  0  0  0  0  0  0  0
   21.0526    0.8700    0.0000 H   0  0  0  0  0  0  0  0  0  0  0  0
   23.6506   -0.8700    0.0000 H   0  0  0  0  0  0  0  0  0  0  0  0
    2.4675   -0.7249    0.0000 H   0  0  0  0  0  0  0  0  0  0  0  0
    3.2646   -0.7249    0.0000 H   0  0  0  0  0  0  0  0  0  0  0  0
   25.1706    3.3326    0.0000 H   0  0  0  0  0  0  0  0  0  0  0  0
   24.7721    2.6423    0.0000 H   0  0  0  0  0  0  0  0  0  0  0  0
   14.7783   -2.6674    0.0000 H   0  0  0  0  0  0  0  0  0  0  0  0
   14.3798   -3.3577    0.0000 H   0  0  0  0  0  0  0  0  0  0  0  0
   20.4965    1.2131    0.0000 H   0  0  0  0  0  0  0  0  0  0  0  0
   20.7235    2.0600    0.0000 H   0  0  0  0  0  0  0  0  0  0  0  0
   19.8765    2.2869    0.0000 H   0  0  0  0  0  0  0  0  0  0  0  0
   22.4746   -2.2869    0.0000 H   0  0  0  0  0  0  0  0  0  0  0  0
   23.3215   -2.0600    0.0000 H   0  0  0  0  0  0  0  0  0  0  0  0
   23.0946   -1.2131    0.0000 H   0  0  0  0  0  0  0  0  0  0  0  0
    2.3100    0.7869    0.0000 H   0  0  0  0  0  0  0  0  0  0  0  0
    1.4631    0.5600    0.0000 H   0  0  0  0  0  0  0  0  0  0  0  0
    1.6900   -0.2869    0.0000 H   0  0  0  0  0  0  0  0  0  0  0  0
   26.4608    2.6674    0.0000 H   0  0  0  0  0  0  0  0  0  0  0  0
   26.8593    3.3577    0.0000 H   0  0  0  0  0  0  0  0  0  0  0  0
   26.2487    0.8700    0.0000 H   0  0  0  0  0  0  0  0  0  0  0  0
   18.4545    2.3700    0.0000 H   0  0  0  0  0  0  0  0  0  0  0  0
   27.1147    0.3700    0.0000 H   0  0  0  0  0  0  0  0  0  0  0  0
   21.0526   -2.3700    0.0000 H   0  0  0  0  0  0  0  0  0  0  0  0
   14.4534   -4.5600    0.0000 H   0  0  0  0  0  0  0  0  0  0  0  0
   15.5273   -4.5600    0.0000 H   0  0  0  0  0  0  0  0  0  0  0  0
   26.5042   -1.1423    0.0000 H   0  0  0  0  0  0  0  0  0  0  0  0
   26.9027   -1.8326    0.0000 H   0  0  0  0  0  0  0  0  0  0  0  0
   26.7856    4.5600    0.0000 H   0  0  0  0  0  0  0  0  0  0  0  0
   25.7118    4.5600    0.0000 H   0  0  0  0  0  0  0  0  0  0  0  0
   27.9808   -2.3700    0.0000 H   0  0  0  0  0  0  0  0  0  0  0  0
   29.3837    0.0600    0.0000 H   0  0  0  0  0  0  0  0  0  0  0  0
 40  1  1  6  0  0  0
  1121  1  0  0  0  0
  2 37  2  0  0  0  0
 43  3  1  1  0  0  0
  3123  1  0  0  0  0
  4 38  2  0  0  0  0
  5 41  2  0  0  0  0
  6 45  2  0  0  0  0
  7 48  2  0  0  0  0
  8 55  1  0  0  0  0
  8130  1  0  0  0  0
  9 56  1  0  0  0  0
  9131  1  0  0  0  0
 10 56  2  0  0  0  0
 28 11  1  6  0  0  0
 11 38  1  0  0  0  0
 11 91  1  0  0  0  0
 32 12  1  1  0  0  0
 12 37  1  0  0  0  0
 12 94  1  0  0  0  0
 34 13  1  6  0  0  0
 13 41  1  0  0  0  0
 13101  1  0  0  0  0
 36 14  1  1  0  0  0
 14 45  1  0  0  0  0
 14102  1  0  0  0  0
 15 48  1  0  0  0  0
 54 15  1  6  0  0  0
 15120  1  0  0  0  0
 16 49  1  0  0  0  0
 16124  1  0  0  0  0
 16125  1  0  0  0  0
 17 53  1  0  0  0  0
 17128  1  0  0  0  0
 17129  1  0  0  0  0
 18 19  1  0  0  0  0
 18 20  1  0  0  0  0
 18 57  1  0  0  0  0
 18 58  1  0  0  0  0
 19 21  1  0  0  0  0
 19 59  1  0  0  0  0
 19 60  1  0  0  0  0
 20 22  1  0  0  0  0
 20 61  1  0  0  0  0
 20 62  1  0  0  0  0
 21 23  1  0  0  0  0
 21 63  1  0  0  0  0
 21 64  1  0  0  0  0
 22 24  1  0  0  0  0
 22 65  1  0  0  0  0
 22 66  1  0  0  0  0
 23 25  1  0  0  0  0
 23 67  1  0  0  0  0
 23 68  1  0  0  0  0
 24 26  1  0  0  0  0
 24 69  1  0  0  0  0
 24 70  1  0  0  0  0
 25 27  1  0  0  0  0
 25 71  1  0  0  0  0
 25 72  1  0  0  0  0
 26 30  1  0  0  0  0
 26 73  1  0  0  0  0
 26 74  1  0  0  0  0
 27 31  1  0  0  0  0
 27 75  1  0  0  0  0
 27 76  1  0  0  0  0
 28 29  1  0  0  0  0
 28 37  1  0  0  0  0
 28 77  1  0  0  0  0
 29 33  1  0  0  0  0
 29 78  1  0  0  0  0
 29 79  1  0  0  0  0
 30 35  1  0  0  0  0
 30 80  1  0  0  0  0
 30 81  1  0  0  0  0
 31 38  1  0  0  0  0
 31 82  1  0  0  0  0
 31 83  1  0  0  0  0
 32 40  1  0  0  0  0
 32 41  1  0  0  0  0
 32 84  1  0  0  0  0
 33 42  1  0  0  0  0
 33 85  1  0  0  0  0
 33 86  1  0  0  0  0
 34 43  1  0  0  0  0
 34 45  1  0  0  0  0
 34 87  1  0  0  0  0
 35 46  1  0  0  0  0
 35 89  1  0  0  0  0
 35 90  1  0  0  0  0
 36 39  1  0  0  0  0
 36 48  1  0  0  0  0
 36 88  1  0  0  0  0
 39 44  1  0  0  0  0
 39 92  1  0  0  0  0
 39 93  1  0  0  0  0
 40 50  1  0  0  0  0
 40 95  1  0  0  0  0
 42 49  1  0  0  0  0
 42 96  1  0  0  0  0
 42 97  1  0  0  0  0
 43 51  1  0  0  0  0
 43 98  1  0  0  0  0
 44 47  1  0  0  0  0
 44 99  1  0  0  0  0
 44100  1  0  0  0  0
 46 52  1  0  0  0  0
 46103  1  0  0  0  0
 46104  1  0  0  0  0
 47 53  1  0  0  0  0
 47105  1  0  0  0  0
 47106  1  0  0  0  0
 49107  1  0  0  0  0
 49108  1  0  0  0  0
 50109  1  0  0  0  0
 50110  1  0  0  0  0
 50111  1  0  0  0  0
 51112  1  0  0  0  0
 51113  1  0  0  0  0
 51114  1  0  0  0  0
 52115  1  0  0  0  0
 52116  1  0  0  0  0
 52117  1  0  0  0  0
 53118  1  0  0  0  0
 53119  1  0  0  0  0
 54 55  1  0  0  0  0
 54 56  1  0  0  0  0
 54122  1  0  0  0  0
 55126  1  0  0  0  0
 55127  1  0  0  0  0
M  END
> <PUBCHEM_COMPOUND_CID>
9897237

> <PUBCHEM_COMPOUND_CANONICALIZED>
1

> <PUBCHEM_CACTVS_COMPLEXITY>
1130

> <PUBCHEM_CACTVS_HBOND_ACCEPTOR>
12

> <PUBCHEM_CACTVS_HBOND_DONOR>
11

> <PUBCHEM_CACTVS_ROTATABLE_BOND>
35

> <PUBCHEM_CACTVS_SUBSKEYS>
AAADcfB/vAAAAAAAAAAAAAAAAAAAAAAAAAAAAAAAAAAAAAAAAAAAHgAQCAAACDzhgAYCCALAAgAIAAGQGAAAAAAAAAAAAIGIAAACUBYAgCAUQAADNgCQAAEYiICAAAAAAAAAAAAAAAAAAAAAAAAAAAAAAA==

> <PUBCHEM_IUPAC_OPENEYE_NAME>
(2S)-2-[[(2S)-6-amino-2-[[(2S,3R)-2-[[(2S,3R)-2-[[(2S)-6-amino-2-(hexadecanoylamino)hexanoyl]amino]-3-hydroxy-butanoyl]amino]-3-hydroxy-butanoyl]amino]hexanoyl]amino]-3-hydroxy-propanoic acid

> <PUBCHEM_IUPAC_CAS_NAME>
(2S)-2-[[(2S)-6-amino-2-[[(2S,3R)-2-[[(2S,3R)-2-[[(2S)-6-amino-1-oxo-2-(1-oxohexadecylamino)hexyl]amino]-3-hydroxy-1-oxobutyl]amino]-3-hydroxy-1-oxobutyl]amino]-1-oxohexyl]amino]-3-hydroxypropanoic acid

> <PUBCHEM_IUPAC_NAME_MARKUP>
(2<I>S</I>)-2-[[(2<I>S</I>)-6-amino-2-[[(2<I>S</I>,3<I>R</I>)-2-[[(2<I>S</I>,3<I>R</I>)-2-[[(2<I>S</I>)-6-amino-2-(hexadecanoylamino)hexanoyl]amino]-3-hydroxybutanoyl]amino]-3-hydroxybutanoyl]amino]hexanoyl]amino]-3-hydroxypropanoic acid

> <PUBCHEM_IUPAC_NAME>
(2S)-2-[[(2S)-6-amino-2-[[(2S,3R)-2-[[(2S,3R)-2-[[(2S)-6-amino-2-(hexadecanoylamino)hexanoyl]amino]-3-hydroxybutanoyl]amino]-3-hydroxybutanoyl]amino]hexanoyl]amino]-3-hydroxypropanoic acid

> <PUBCHEM_IUPAC_SYSTEMATIC_NAME>
(2S)-2-[[(2S)-6-azanyl-2-[[(2S,3R)-2-[[(2S,3R)-2-[[(2S)-6-azanyl-2-(hexadecanoylamino)hexanoyl]amino]-3-oxidanyl-butanoyl]amino]-3-oxidanyl-butanoyl]amino]hexanoyl]amino]-3-oxidanyl-propanoic acid

> <PUBCHEM_IUPAC_TRADITIONAL_NAME>
(2S)-2-[[(2S)-6-amino-2-[[(2S,3R)-2-[[(2S,3R)-2-[[(2S)-6-amino-2-palmitamido-hexanoyl]amino]-3-hydroxy-butanoyl]amino]-3-hydroxy-butanoyl]amino]hexanoyl]amino]-3-hydroxy-propionic acid

> <PUBCHEM_IUPAC_INCHI>
InChI=1S/C39H75N7O10/c1-4-5-6-7-8-9-10-11-12-13-14-15-16-23-32(50)42-29(21-17-19-24-40)36(52)45-34(28(3)49)38(54)46-33(27(2)48)37(53)43-30(22-18-20-25-41)35(51)44-31(26-47)39(55)56/h27-31,33-34,47-49H,4-26,40-41H2,1-3H3,(H,42,50)(H,43,53)(H,44,51)(H,45,52)(H,46,54)(H,55,56)/t27-,28-,29+,30+,31+,33+,34+/m1/s1

> <PUBCHEM_IUPAC_INCHIKEY>
WSGCRSMLXFHGRM-DEVHWETNSA-N

> <PUBCHEM_XLOGP3_AA>
0.8

> <PUBCHEM_EXACT_MASS>
801.55754161

> <PUBCHEM_MOLECULAR_FORMULA>
C39H75N7O10

> <PUBCHEM_MOLECULAR_WEIGHT>
802.1

> <PUBCHEM_SMILES>
CCCCCCCCCCCCCCCC(=O)N[C@@H](CCCCN)C(=O)N[C@@H]([C@@H](C)O)C(=O)N[C@@H]([C@@H](C)O)C(=O)N[C@@H](CCCCN)C(=O)N[C@@H](CO)C(=O)O

> <PUBCHEM_CONNECTIVITY_SMILES>
CCCCCCCCCCCCCCCC(=O)NC(CCCCN)C(=O)NC(C(C)O)C(=O)NC(C(C)O)C(=O)NC(CCCCN)C(=O)NC(CO)C(=O)O

> <PUBCHEM_CACTVS_TPSA>
296

> <PUBCHEM_MONOISOTOPIC_WEIGHT>
801.55754161

> <PUBCHEM_TOTAL_CHARGE>
0

> <PUBCHEM_HEAVY_ATOM_COUNT>
56

> <PUBCHEM_ATOM_DEF_STEREO_COUNT>
7

> <PUBCHEM_ATOM_UDEF_STEREO_COUNT>
0

> <PUBCHEM_BOND_DEF_STEREO_COUNT>
0

> <PUBCHEM_BOND_UDEF_STEREO_COUNT>
0

> <PUBCHEM_ISOTOPIC_ATOM_COUNT>
0

> <PUBCHEM_COMPONENT_COUNT>
1

> <PUBCHEM_CACTVS_TAUTO_COUNT>
-1

> <PUBCHEM_COORDINATE_TYPE>
1
5
255

> <PUBCHEM_BONDANNOTATIONS>
40  1  6
28  11  6
32  12  5
34  13  6
36  14  5
54  15  6
43  3  5

$$$$
